examples/feeders/17_SE001_1/005_segmentoMT.dss
New Line.SMT_10021 phases=3 bus1=278621.1.2.3 bus2= 297691.1.2.3 linecode=10_3 length=0.03776 units=km
New Line.SMT_10041 phases=3 bus1=272121.1.2.3 bus2= 272131.1.2.3 linecode=10_3 length=0.09906 units=km
New Line.SMT_10093 phases=1 bus1=250941.2 bus2= 265561.2 linecode=1_1 length=0.12667 units=km
New Line.SMT_10119 phases=3 bus1=272111.1.2.3 bus2= 272121.1.2.3 linecode=10_3 length=0.09848 units=km
New Line.SMT_10193 phases=3 bus1=239451.1.2.3 bus2= 789971.1.2.3 linecode=10_3 length=0.00432 units=km
New Line.SMT_10218 phases=1 bus1=250821.2 bus2= 250831.2 linecode=1_1 length=0.13603 units=km
New Line.SMT_10270 phases=1 bus1=250891.2 bus2= 250901.2 linecode=1_1 length=0.11707 units=km
New Line.SMT_10296 phases=3 bus1=268191.1.2.3 bus2= 268211.1.2.3 linecode=10_3 length=0.09908 units=km
New Line.SMT_10314 phases=3 bus1=268221.1.2.3 bus2= 268271.1.2.3 linecode=10_3 length=0.10008 units=km
New Line.SMT_10360 phases=3 bus1=661061.1.2.3 bus2= 297731.1.2.3 linecode=10_3 length=0.02221 units=km
New Line.SMT_10372 phases=3 bus1=418631.1.2.3 bus2= 789981.1.2.3 linecode=10_3 length=0.00158 units=km
New Line.SMT_10402 phases=3 bus1=361891.1.2.3 bus2= 272971.1.2.3 linecode=36_3 length=0.00432 units=km
New Line.SMT_10456 phases=3 bus1=687341.1.2.3 bus2= 268191.1.2.3 linecode=10_3 length=0.04105 units=km
New Line.SMT_10463 phases=1 bus1=250831.2 bus2= 250841.2 linecode=1_1 length=0.09833 units=km
New Line.SMT_10498 phases=1 bus1=250851.2 bus2= 250891.2 linecode=1_1 length=0.1436 units=km
New Line.SMT_10542 phases=3 bus1=239481.1.2.3 bus2= 239491.1.2.3 linecode=10_3 length=0.08081 units=km
New Line.SMT_10545 phases=3 bus1=268271.1.2.3 bus2= 268331.1.2.3 linecode=10_3 length=0.046 units=km
New Line.SMT_10589 phases=3 bus1=272981.1.2.3 bus2= 361891.1.2.3 linecode=36_3 length=0.02759 units=km
New Line.SMT_10654 phases=3 bus1=239471.1.2.3 bus2= 239481.1.2.3 linecode=10_3 length=0.09886 units=km
New Line.SMT_10658 phases=3 bus1=239471.1.2.3 bus2= 377171.1.2.3 linecode=10_3 length=0.1222 units=km
New Line.SMT_10845 phases=1 bus1=268271.2 bus2= 250811.2 linecode=1_1 length=0.12761 units=km
New Line.SMT_10854 phases=3 bus1=361891.1.2.3 bus2= 329321.1.2.3 linecode=10_3 length=0.02496 units=km
New Line.SMT_10949 phases=3 bus1=288371.1.2.3 bus2= 133241.1.2.3 linecode=36_3 length=0.09714 units=km
New Line.SMT_10978 phases=3 bus1=239491.1.2.3 bus2= 239501.1.2.3 linecode=10_3 length=0.08721 units=km
New Line.SMT_11014 phases=3 bus1=239461.1.2.3 bus2= 239471.1.2.3 linecode=10_3 length=0.07799 units=km
New Line.SMT_1296 phases=3 bus1=272111.1.2.3 bus2= 651451.1.2.3 linecode=10_3 length=0.05869 units=km
New Line.SMT_1297 phases=3 bus1=682181.1.2.3 bus2= 651461.1.2.3 linecode=10_3 length=0.02561 units=km
New Line.SMT_16371 phases=3 bus1=17CF674.1.2.3 bus2= 451241.1.2.3 linecode=10_3 length=0.0025 units=km
New Line.SMT_16439 phases=3 bus1=17CS500.1.2.3 bus2= 255521.1.2.3 linecode=36_3 length=0.00102 units=km
New Line.SMT_16443 phases=3 bus1=239511.1.2.3 bus2= 663171.1.2.3 linecode=13_3 length=0.07473 units=km
New Line.SMT_16670 phases=3 bus1=239521.1.2.3 bus2= 476541.1.2.3 linecode=10_3 length=0.15945 units=km
New Line.SMT_16687 phases=3 bus1=476541.1.2.3 bus2= 476551.1.2.3 linecode=10_3 length=0.09043 units=km
New Line.SMT_16764 phases=3 bus1=476551.1.2.3 bus2= 476561.1.2.3 linecode=10_3 length=0.1695 units=km
New Line.SMT_16850 phases=3 bus1=267411.1.2.3 bus2= 267421.1.2.3 linecode=10_3 length=0.04549 units=km
New Line.SMT_16851 phases=3 bus1=620881.1.2.3 bus2= 255661.1.2.3 linecode=10_3 length=0.02283 units=km
New Line.SMT_16896 phases=3 bus1=476571.1.2.3 bus2= 476581.1.2.3 linecode=10_3 length=0.15199 units=km
New Line.SMT_16897 phases=3 bus1=746831.1.2.3 bus2= 476591.1.2.3 linecode=10_3 length=0.0097 units=km
New Line.SMT_1717 phases=3 bus1=329311.1.2.3 bus2= 651041.1.2.3 linecode=10_3 length=0.04205 units=km
New Line.SMT_17181 phases=3 bus1=476561.1.2.3 bus2= 476571.1.2.3 linecode=10_3 length=0.06851 units=km
New Line.SMT_17381 phases=3 bus1=267371.1.2.3 bus2= 267381.1.2.3 linecode=10_3 length=0.03536 units=km
New Line.SMT_17382 phases=3 bus1=267381.1.2.3 bus2= 267391.1.2.3 linecode=10_3 length=0.03329 units=km
New Line.SMT_17539 phases=3 bus1=620921.1.2.3 bus2= 620931.1.2.3 linecode=13_3 length=0.04245 units=km
New Line.SMT_17563 phases=3 bus1=255641.1.2.3 bus2= 255651.1.2.3 linecode=10_3 length=0.0313 units=km
New Line.SMT_17988 phases=3 bus1=620931.1.2.3 bus2= 620941.1.2.3 linecode=13_3 length=0.02256 units=km
New Line.SMT_17989 phases=3 bus1=267431.1.2.3 bus2= 255621.1.2.3 linecode=10_3 length=0.04294 units=km
New Line.SMT_1809 phases=3 bus1=635161.1.2.3 bus2= 639531.1.2.3 linecode=10_3 length=0.01944 units=km
New Line.SMT_1810 phases=3 bus1=635161.1.2.3 bus2= 639511.1.2.3 linecode=10_3 length=0.02813 units=km
New Line.SMT_1811 phases=3 bus1=639541.1.2.3 bus2= 639551.1.2.3 linecode=10_3 length=0.02474 units=km
New Line.SMT_18115 phases=3 bus1=255631.1.2.3 bus2= 255641.1.2.3 linecode=10_3 length=0.02561 units=km
New Line.SMT_18116 phases=3 bus1=255651.1.2.3 bus2= 620881.1.2.3 linecode=10_3 length=0.03672 units=km
New Line.SMT_1896 phases=3 bus1=639511.1.2.3 bus2= 639541.1.2.3 linecode=10_3 length=0.03667 units=km
New Line.SMT_1897 phases=3 bus1=639551.1.2.3 bus2= 635361.1.2.3 linecode=10_3 length=0.00269 units=km
New Line.SMT_19392 phases=3 bus1=272891.1.2.3 bus2= 363341.1.2.3 linecode=10_3 length=0.03889 units=km
New Line.SMT_19835 phases=3 bus1=272071.1.2.3 bus2= 272081.1.2.3 linecode=10_3 length=0.06801 units=km
New Line.SMT_19837 phases=3 bus1=296001.1.2.3 bus2= 296011.1.2.3 linecode=10_3 length=0.10784 units=km
New Line.SMT_19894 phases=3 bus1=361881.1.2.3 bus2= 218861.1.2.3 linecode=36_3 length=0.01872 units=km
New Line.SMT_19903 phases=3 bus1=297691.1.2.3 bus2= 625021.1.2.3 linecode=10_3 length=0.01616 units=km
New Line.SMT_19938 phases=3 bus1=219541.1.2.3 bus2= 360001.1.2.3 linecode=36_3 length=0.02406 units=km
New Line.SMT_19942 phases=3 bus1=620941.1.2.3 bus2= 620951.1.2.3 linecode=13_3 length=0.04545 units=km
New Line.SMT_19945 phases=3 bus1=549641.1.2.3 bus2= 549651.1.2.3 linecode=3_3 length=0.0136 units=km
New Line.SMT_19947 phases=3 bus1=361891.1.2.3 bus2= 273021.1.2.3 linecode=10_3 length=0.01514 units=km
New Line.SMT_19990 phases=3 bus1=272991.1.2.3 bus2= 272981.1.2.3 linecode=36_3 length=0.03023 units=km
New Line.SMT_19991 phases=3 bus1=255621.1.2.3 bus2= 255631.1.2.3 linecode=10_3 length=0.0214 units=km
New Line.SMT_19993 phases=3 bus1=17CF290.1.2.3 bus2= 273031.1.2.3 linecode=10_3 length=0.03399 units=km
New Line.SMT_19998 phases=3 bus1=363341.1.2.3 bus2= 272901.1.2.3 linecode=10_3 length=0.0188 units=km
New Line.SMT_20001 phases=3 bus1=273021.1.2.3 bus2= 451291.1.2.3 linecode=10_3 length=0.00375 units=km
New Line.SMT_20277 phases=3 bus1=344571.1.2.3 bus2= 279191.1.2.3 linecode=10_3 length=0.02863 units=km
New Line.SMT_20280 phases=3 bus1=267421.1.2.3 bus2= 267431.1.2.3 linecode=10_3 length=0.04118 units=km
New Line.SMT_20281 phases=3 bus1=620901.1.2.3 bus2= 620911.1.2.3 linecode=13_3 length=0.0322 units=km
New Line.SMT_20310 phases=3 bus1=272921.1.2.3 bus2= 363331.1.2.3 linecode=10_3 length=0.03223 units=km
New Line.SMT_20316 phases=3 bus1=278561.1.2.3 bus2= 278641.1.2.3 linecode=10_3 length=0.03357 units=km
New Line.SMT_20317 phases=3 bus1=297671.1.2.3 bus2= 351411.1.2.3 linecode=10_3 length=0.01603 units=km
New Line.SMT_20318 phases=3 bus1=351411.1.2.3 bus2= 297661.1.2.3 linecode=10_3 length=0.00807 units=km
New Line.SMT_20319 phases=3 bus1=639531.1.2.3 bus2= 639521.1.2.3 linecode=10_3 length=0.03448 units=km
New Line.SMT_20412 phases=1 bus1=250931.2 bus2= 250941.2 linecode=1_1 length=0.09522 units=km
New Line.SMT_20481 phases=3 bus1=298561.1.2.3 bus2= 298571.1.2.3 linecode=10_3 length=0.09742 units=km
New Line.SMT_22939 phases=3 bus1=268211.1.2.3 bus2= 268221.1.2.3 linecode=10_3 length=0.09813 units=km
New Line.SMT_23106 phases=3 bus1=17CF607.1.2.3 bus2= 295991.1.2.3 linecode=10_3 length=0.0739 units=km
New Line.SMT_23107 phases=3 bus1=243281.1.2.3 bus2= 328591.1.2.3 linecode=10_3 length=0.00339 units=km
New Line.SMT_23149 phases=3 bus1=279331.1.2.3 bus2= 279321.1.2.3 linecode=10_3 length=0.02625 units=km
New Line.SMT_23150 phases=3 bus1=344571.1.2.3 bus2= 279331.1.2.3 linecode=10_3 length=0.01919 units=km
New Line.SMT_23152 phases=3 bus1=218851.1.2.3 bus2= 218841.1.2.3 linecode=36_3 length=0.03895 units=km
New Line.SMT_23153 phases=3 bus1=219491.1.2.3 bus2= 219481.1.2.3 linecode=10_3 length=0.04301 units=km
New Line.SMT_23155 phases=3 bus1=218861.1.2.3 bus2= 218851.1.2.3 linecode=36_3 length=0.03996 units=km
New Line.SMT_23157 phases=3 bus1=219511.1.2.3 bus2= 218881.1.2.3 linecode=36_3 length=0.04837 units=km
New Line.SMT_23160 phases=3 bus1=451241.1.2.3 bus2= 267371.1.2.3 linecode=10_3 length=0.03099 units=km
New Line.SMT_23200 phases=3 bus1=651041.1.2.3 bus2= 329331.1.2.3 linecode=10_3 length=0.05277 units=km
New Line.SMT_23201 phases=3 bus1=219551.1.2.3 bus2= 219541.1.2.3 linecode=36_3 length=0.03536 units=km
New Line.SMT_23202 phases=3 bus1=267391.1.2.3 bus2= 267411.1.2.3 linecode=10_3 length=0.05831 units=km
New Line.SMT_23203 phases=3 bus1=620911.1.2.3 bus2= 620921.1.2.3 linecode=13_3 length=0.01552 units=km
New Line.SMT_23204 phases=3 bus1=17CS37.1.2.3 bus2= 272961.1.2.3 linecode=36_3 length=0.00283 units=km
New Line.SMT_23208 phases=3 bus1=273031.1.2.3 bus2= 272891.1.2.3 linecode=10_3 length=0.03225 units=km
New Line.SMT_23210 phases=3 bus1=363341.1.2.3 bus2= 269261.1.2.3 linecode=10_3 length=0.00521 units=km
New Line.SMT_23211 phases=3 bus1=360001.1.2.3 bus2= 219491.1.2.3 linecode=10_3 length=0.02885 units=km
New Line.SMT_23256 phases=3 bus1=297641.1.2.3 bus2= 635161.1.2.3 linecode=10_3 length=0.05585 units=km
New Line.SMT_23257 phases=3 bus1=297681.1.2.3 bus2= 297671.1.2.3 linecode=10_3 length=0.02766 units=km
New Line.SMT_23258 phases=3 bus1=297691.1.2.3 bus2= 297681.1.2.3 linecode=10_3 length=0.02433 units=km
New Line.SMT_23259 phases=3 bus1=278621.1.2.3 bus2= 278611.1.2.3 linecode=10_3 length=0.01973 units=km
New Line.SMT_23261 phases=3 bus1=297701.1.2.3 bus2= 297711.1.2.3 linecode=10_3 length=0.03002 units=km
New Line.SMT_23309 phases=3 bus1=661051.1.2.3 bus2= 661321.1.2.3 linecode=13_3 length=0.03544 units=km
New Line.SMT_23310 phases=3 bus1=661321.1.2.3 bus2= 661361.1.2.3 linecode=13_3 length=0.04134 units=km
New Line.SMT_23311 phases=3 bus1=661361.1.2.3 bus2= 661371.1.2.3 linecode=13_3 length=0.00721 units=km
New Line.SMT_23312 phases=3 bus1=344571.1.2.3 bus2= 310831.1.2.3 linecode=10_3 length=0.01179 units=km
New Line.SMT_2339 phases=3 bus1=549751.1.2.3 bus2= 549721.1.2.3 linecode=10_3 length=0.01453 units=km
New Line.SMT_23984 phases=3 bus1=297711.1.2.3 bus2= 661061.1.2.3 linecode=10_3 length=0.01606 units=km
New Line.SMT_23985 phases=3 bus1=661031.1.2.3 bus2= 661011.1.2.3 linecode=13_3 length=0.03883 units=km
New Line.SMT_23986 phases=3 bus1=661011.1.2.3 bus2= 661041.1.2.3 linecode=13_3 length=0.03421 units=km
New Line.SMT_23987 phases=3 bus1=661041.1.2.3 bus2= 661051.1.2.3 linecode=13_3 length=0.03105 units=km
New Line.SMT_23988 phases=3 bus1=661061.1.2.3 bus2= 663851.1.2.3 linecode=13_3 length=0.00554 units=km
New Line.SMT_23989 phases=3 bus1=661061.1.2.3 bus2= 661031.1.2.3 linecode=13_3 length=0.07015 units=km
New Line.SMT_24044 phases=3 bus1=451241.1.2.3 bus2= 267351.1.2.3 linecode=10_3 length=0.01694 units=km
New Line.SMT_24412 phases=1 bus1=278211.2 bus2= 671351.2 linecode=1_1 length=0.06805 units=km
New Line.SMT_24516 phases=3 bus1=267761.1.2.3 bus2= 618071.1.2.3 linecode=13_3 length=0.04802 units=km
New Line.SMT_24518 phases=3 bus1=361881.1.2.3 bus2= 218871.1.2.3 linecode=13_3 length=0.00468 units=km
New Line.SMT_24519 phases=3 bus1=218871.1.2.3 bus2= 267781.1.2.3 linecode=13_3 length=0.05187 units=km
New Line.SMT_24521 phases=3 bus1=267781.1.2.3 bus2= 267771.1.2.3 linecode=13_3 length=0.04621 units=km
New Line.SMT_24522 phases=3 bus1=267771.1.2.3 bus2= 267761.1.2.3 linecode=13_3 length=0.02244 units=km
New Line.SMT_24616 phases=3 bus1=255631.1.2.3 bus2= 620901.1.2.3 linecode=13_3 length=0.03672 units=km
New Line.SMT_24618 phases=3 bus1=255641.1.2.3 bus2= 192631.1.2.3 linecode=10_3 length=0.01118 units=km
New Line.SMT_24619 phases=3 bus1=273061.1.2.3 bus2= 360421.1.2.3 linecode=36_3 length=0.03996 units=km
New Line.SMT_2493 phases=3 bus1=549751.1.2.3 bus2= 549631.1.2.3 linecode=10_3 length=0.01054 units=km
New Line.SMT_2494 phases=3 bus1=549631.1.2.3 bus2= 549641.1.2.3 linecode=3_3 length=0.01581 units=km
New Line.SMT_2508 phases=3 bus1=549721.1.2.3 bus2= 549731.1.2.3 linecode=10_3 length=0.01208 units=km
New Line.SMT_25158 phases=3 bus1=549681.1.2.3 bus2= 549691.1.2.3 linecode=10_3 length=0.0136 units=km
New Line.SMT_25159 phases=3 bus1=549691.1.2.3 bus2= 549701.1.2.3 linecode=10_3 length=0.01204 units=km
New Line.SMT_25160 phases=3 bus1=549701.1.2.3 bus2= 549711.1.2.3 linecode=10_3 length=0.01304 units=km
New Line.SMT_2545 phases=3 bus1=192631.1.2.3 bus2= 549681.1.2.3 linecode=10_3 length=0.01562 units=km
New Line.SMT_2546 phases=3 bus1=192631.1.2.3 bus2= 549751.1.2.3 linecode=10_3 length=0.01167 units=km
New Line.SMT_2547 phases=3 bus1=549751.1.2.3 bus2= 549671.1.2.3 linecode=10_3 length=0.00795 units=km
New Line.SMT_2650 phases=3 bus1=549651.1.2.3 bus2= 549661.1.2.3 linecode=3_3 length=0.01616 units=km
New Line.SMT_26734 phases=3 bus1=269251.1.2.3 bus2= 278541.1.2.3 linecode=10_3 length=0.04342 units=km
New Line.SMT_27370 phases=3 bus1=272131.1.2.3 bus2= 272161.1.2.3 linecode=10_3 length=0.12823 units=km
New Line.SMT_27371 phases=3 bus1=272161.1.2.3 bus2= 268131.1.2.3 linecode=10_3 length=0.08698 units=km
New Line.SMT_27372 phases=3 bus1=268131.1.2.3 bus2= 350451.1.2.3 linecode=10_3 length=0.09884 units=km
New Line.SMT_27373 phases=3 bus1=350451.1.2.3 bus2= 672761.1.2.3 linecode=10_3 length=0.06198 units=km
New Line.SMT_27374 phases=3 bus1=672761.1.2.3 bus2= 672771.1.2.3 linecode=10_3 length=0.0536 units=km
New Line.SMT_27375 phases=3 bus1=672771.1.2.3 bus2= 672781.1.2.3 linecode=10_3 length=0.03453 units=km
New Line.SMT_27376 phases=3 bus1=672781.1.2.3 bus2= 672791.1.2.3 linecode=10_3 length=0.05092 units=km
New Line.SMT_2759 phases=3 bus1=549731.1.2.3 bus2= 549741.1.2.3 linecode=10_3 length=0.01526 units=km
New Line.SMT_27726 phases=3 bus1=288381.1.2.3 bus2= 288371.1.2.3 linecode=36_3 length=0.05701 units=km
New Line.SMT_27728 phases=3 bus1=329321.1.2.3 bus2= 329311.1.2.3 linecode=10_3 length=0.00496 units=km
New Line.SMT_28436 phases=3 bus1=272061.1.2.3 bus2= 727431.1.2.3 linecode=10_3 length=0.00308 units=km
New Line.SMT_29403 phases=3 bus1=549741.1.2.3 bus2= 674621.1.2.3 linecode=10_3 length=0.023 units=km
New Line.SMT_29404 phases=3 bus1=674621.1.2.3 bus2= 674641.1.2.3 linecode=10_3 length=0.01 units=km
New Line.SMT_29505 phases=1 bus1=295991.1 bus2= 688781.1 linecode=1_1 length=0.01346 units=km
New Line.SMT_29507 phases=3 bus1=651451.1.2.3 bus2= 682181.1.2.3 linecode=10_3 length=0.06648 units=km
New Line.SMT_29519 phases=3 bus1=633171.1.2.3 bus2= 298611.1.2.3 linecode=10_3 length=0.04701 units=km
New Line.SMT_29520 phases=3 bus1=298611.1.2.3 bus2= 378351.1.2.3 linecode=10_3 length=0.02385 units=km
New Line.SMT_29847 phases=3 bus1=476581.1.2.3 bus2= 746831.1.2.3 linecode=10_3 length=0.14253 units=km
New Line.SMT_29848 phases=3 bus1=17CF1434.1.2.3 bus2= 746841.1.2.3 linecode=10_3 length=0.07424 units=km
New Line.SMT_29849 phases=3 bus1=746841.1.2.3 bus2= 746851.1.2.3 linecode=10_3 length=0.11123 units=km
New Line.SMT_29850 phases=3 bus1=746851.1.2.3 bus2= 746861.1.2.3 linecode=10_3 length=0.11778 units=km
New Line.SMT_29851 phases=3 bus1=746861.1.2.3 bus2= 746871.1.2.3 linecode=10_3 length=0.09702 units=km
New Line.SMT_29852 phases=3 bus1=746871.1.2.3 bus2= 746881.1.2.3 linecode=10_3 length=0.10988 units=km
New Line.SMT_29853 phases=3 bus1=746881.1.2.3 bus2= 746891.1.2.3 linecode=10_3 length=0.08141 units=km
New Line.SMT_29854 phases=3 bus1=746831.1.2.3 bus2= 746961.1.2.3 linecode=10_3 length=0.0027 units=km
New Line.SMT_30342 phases=3 bus1=268181.1.2.3 bus2= 687341.1.2.3 linecode=10_3 length=0.07118 units=km
New Line.SMT_30343 phases=3 bus1=687341.1.2.3 bus2= 689781.1.2.3 linecode=10_3 length=0.00667 units=km
New Line.SMT_30344 phases=3 bus1=689771.1.2.3 bus2= 268201.1.2.3 linecode=10_3 length=0.08682 units=km
New Line.SMT_30345 phases=3 bus1=687351.1.2.3 bus2= 689771.1.2.3 linecode=10_3 length=0.0735 units=km
New Line.SMT_30346 phases=3 bus1=17CF1514.1.2.3 bus2= 687351.1.2.3 linecode=10_3 length=0.0707 units=km
New Line.SMT_30890 phases=1 bus1=268221.1 bus2= 736051.1 linecode=1_1 length=0.28383 units=km
New Line.SMT_30891 phases=1 bus1=736051.1 bus2= 268231.1 linecode=1_1 length=0.29977 units=km
New Line.SMT_30892 phases=1 bus1=268271.1 bus2= 268281.1 linecode=1_1 length=0.06047 units=km
New Line.SMT_30893 phases=1 bus1=268331.1 bus2= 388921.1 linecode=1_1 length=0.137 units=km
New Line.SMT_30894 phases=1 bus1=388921.1 bus2= 268351.1 linecode=1_1 length=0.04601 units=km
New Line.SMT_30895 phases=1 bus1=268351.1 bus2= 750981.1 linecode=1_1 length=0.06165 units=km
New Line.SMT_30896 phases=1 bus1=750981.1 bus2= 268361.1 linecode=1_1 length=0.08595 units=km
New Line.SMT_31937 phases=3 bus1=689771.1.2.3 bus2= 760411.1.2.3 linecode=10_3 length=0.10393 units=km
New Line.SMT_31938 phases=3 bus1=760411.1.2.3 bus2= 760421.1.2.3 linecode=10_3 length=0.10333 units=km
New Line.SMT_31939 phases=3 bus1=760421.1.2.3 bus2= 760431.1.2.3 linecode=10_3 length=0.15046 units=km
New Line.SMT_31940 phases=3 bus1=760431.1.2.3 bus2= 760441.1.2.3 linecode=10_3 length=0.082 units=km
New Line.SMT_32605 phases=3 bus1=268161.1.2.3 bus2= 764041.1.2.3 linecode=10_3 length=0.10129 units=km
New Line.SMT_3269 phases=3 bus1=201751.1.2.3 bus2= 663131.1.2.3 linecode=10_3 length=0.00303 units=km
New Line.SMT_32857 phases=3 bus1=635361.1.2.3 bus2= 239561.1.2.3 linecode=10_3 length=0.098 units=km
New Line.SMT_32858 phases=3 bus1=765941.1.2.3 bus2= 239571.1.2.3 linecode=10_3 length=0.111 units=km
New Line.SMT_32859 phases=3 bus1=239571.1.2.3 bus2= 239581.1.2.3 linecode=10_3 length=0.10112 units=km
New Line.SMT_32860 phases=3 bus1=239581.1.2.3 bus2= 239591.1.2.3 linecode=10_3 length=0.109 units=km
New Line.SMT_32861 phases=3 bus1=239591.1.2.3 bus2= 239601.1.2.3 linecode=10_3 length=0.12205 units=km
New Line.SMT_32862 phases=3 bus1=239601.1.2.3 bus2= 278181.1.2.3 linecode=10_3 length=0.099 units=km
New Line.SMT_32863 phases=3 bus1=278181.1.2.3 bus2= 278191.1.2.3 linecode=10_3 length=0.13175 units=km
New Line.SMT_32864 phases=3 bus1=278191.1.2.3 bus2= 278201.1.2.3 linecode=10_3 length=0.09534 units=km
New Line.SMT_32865 phases=3 bus1=278201.1.2.3 bus2= 278211.1.2.3 linecode=10_3 length=0.10647 units=km
New Line.SMT_32866 phases=3 bus1=278211.1.2.3 bus2= 278221.1.2.3 linecode=10_3 length=0.11145 units=km
New Line.SMT_32867 phases=3 bus1=278221.1.2.3 bus2= 278231.1.2.3 linecode=10_3 length=0.10977 units=km
New Line.SMT_32868 phases=3 bus1=278231.1.2.3 bus2= 278241.1.2.3 linecode=10_3 length=0.076 units=km
New Line.SMT_32869 phases=3 bus1=278241.1.2.3 bus2= 278261.1.2.3 linecode=10_3 length=0.10469 units=km
New Line.SMT_32870 phases=3 bus1=278261.1.2.3 bus2= 278271.1.2.3 linecode=10_3 length=0.1 units=km
New Line.SMT_32871 phases=3 bus1=765951.1.2.3 bus2= 278311.1.2.3 linecode=10_3 length=0.10074 units=km
New Line.SMT_32872 phases=3 bus1=278311.1.2.3 bus2= 278321.1.2.3 linecode=10_3 length=0.105 units=km
New Line.SMT_32873 phases=3 bus1=278321.1.2.3 bus2= 278351.1.2.3 linecode=10_3 length=0.083 units=km
New Line.SMT_32874 phases=3 bus1=278351.1.2.3 bus2= 278361.1.2.3 linecode=10_3 length=0.09319 units=km
New Line.SMT_32875 phases=3 bus1=278361.1.2.3 bus2= 278381.1.2.3 linecode=10_3 length=0.046 units=km
New Line.SMT_32876 phases=3 bus1=278381.1.2.3 bus2= 278391.1.2.3 linecode=10_3 length=0.06675 units=km
New Line.SMT_32877 phases=3 bus1=278391.1.2.3 bus2= 278401.1.2.3 linecode=10_3 length=0.116 units=km
New Line.SMT_32878 phases=3 bus1=278401.1.2.3 bus2= 278411.1.2.3 linecode=10_3 length=0.087 units=km
New Line.SMT_32879 phases=3 bus1=278411.1.2.3 bus2= 278421.1.2.3 linecode=10_3 length=0.08287 units=km
New Line.SMT_32880 phases=3 bus1=278421.1.2.3 bus2= 278431.1.2.3 linecode=10_3 length=0.08981 units=km
New Line.SMT_32881 phases=3 bus1=278431.1.2.3 bus2= 279171.1.2.3 linecode=10_3 length=0.07339 units=km
New Line.SMT_32882 phases=3 bus1=239561.1.2.3 bus2= 765931.1.2.3 linecode=10_3 length=0.0019 units=km
New Line.SMT_32883 phases=3 bus1=17CF291.1.2.3 bus2= 765941.1.2.3 linecode=10_3 length=0.0014 units=km
New Line.SMT_32884 phases=3 bus1=765981.1.2.3 bus2= 765951.1.2.3 linecode=10_3 length=0.08438 units=km
New Line.SMT_32885 phases=3 bus1=279171.1.2.3 bus2= 765961.1.2.3 linecode=10_3 length=0.05303 units=km
New Line.SMT_32886 phases=3 bus1=765961.1.2.3 bus2= 765971.1.2.3 linecode=10_3 length=0.06143 units=km
New Line.SMT_32887 phases=3 bus1=278271.1.2.3 bus2= 765981.1.2.3 linecode=10_3 length=0.07187 units=km
New Line.SMT_32893 phases=3 bus1=766111.1.2.3 bus2= 200492.1.2.3 linecode=3_3 length=0.05386 units=km
New Line.SMT_32894 phases=3 bus1=200492.1.2.3 bus2= 200501.1.2.3 linecode=10_3 length=0.03754 units=km
New Line.SMT_32895 phases=3 bus1=766132.1.2.3 bus2= 272061.1.2.3 linecode=10_3 length=0.07366 units=km
New Line.SMT_32897 phases=3 bus1=766171.1.2.3 bus2= 652621.1.2.3 linecode=3_3 length=0.04856 units=km
New Line.SMT_32898 phases=3 bus1=718161.1.2.3 bus2= 718151.1.2.3 linecode=3_3 length=0.0137 units=km
New Line.SMT_32901 phases=3 bus1=718151.1.2.3 bus2= 766001.1.2.3 linecode=3_3 length=0.05594 units=km
New Line.SMT_32902 phases=3 bus1=652621.1.2.3 bus2= 766011.1.2.3 linecode=3_3 length=0.0515 units=km
New Line.SMT_32903 phases=3 bus1=766011.1.2.3 bus2= 766021.1.2.3 linecode=3_3 length=0.05605 units=km
New Line.SMT_32904 phases=3 bus1=766021.1.2.3 bus2= 766031.1.2.3 linecode=3_3 length=0.05849 units=km
New Line.SMT_32906 phases=3 bus1=766031.1.2.3 bus2= 766051.1.2.3 linecode=3_3 length=0.06 units=km
New Line.SMT_32907 phases=3 bus1=766051.1.2.3 bus2= 766061.1.2.3 linecode=3_3 length=0.05871 units=km
New Line.SMT_32908 phases=3 bus1=766061.1.2.3 bus2= 766071.1.2.3 linecode=3_3 length=0.05169 units=km
New Line.SMT_32909 phases=3 bus1=766071.1.2.3 bus2= 766081.1.2.3 linecode=3_3 length=0.05472 units=km
New Line.SMT_32910 phases=3 bus1=766081.1.2.3 bus2= 766091.1.2.3 linecode=3_3 length=0.0507 units=km
New Line.SMT_32911 phases=3 bus1=766081.1.2.3 bus2= 766101.1.2.3 linecode=3_3 length=0.00196 units=km
New Line.SMT_32912 phases=3 bus1=17CF964.1.2.3 bus2= 766111.1.2.3 linecode=3_3 length=0.00096 units=km
New Line.SMT_32913 phases=3 bus1=766091.1.2.3 bus2= 766121.1.2.3 linecode=3_3 length=0.04924 units=km
New Line.SMT_32914 phases=3 bus1=766121.1.2.3 bus2= 766132.1.2.3 linecode=10_3 length=0.06297 units=km
New Line.SMT_32917 phases=3 bus1=766001.1.2.3 bus2= 766161.1.2.3 linecode=3_3 length=0.00414 units=km
New Line.SMT_32918 phases=3 bus1=17FR1693.1.2.3 bus2= 766171.1.2.3 linecode=3_3 length=0.00049 units=km
New Line.SMT_33026 phases=3 bus1=272081.1.2.3 bus2= 272091.1.2.3 linecode=13_3 length=0.10057 units=km
New Line.SMT_33027 phases=3 bus1=272091.1.2.3 bus2= 272101.1.2.3 linecode=13_3 length=0.09519 units=km
New Line.SMT_33028 phases=3 bus1=272101.1.2.3 bus2= 670641.1.2.3 linecode=13_3 length=0.04188 units=km
New Line.SMT_33029 phases=3 bus1=670641.1.2.3 bus2= 766971.1.2.3 linecode=13_3 length=0.0912 units=km
New Line.SMT_33030 phases=3 bus1=766971.1.2.3 bus2= 766981.1.2.3 linecode=13_3 length=0.05971 units=km
New Line.SMT_33275 phases=3 bus1=768581.1.2.3 bus2= 769471.1.2.3 linecode=10_3 length=0.00232 units=km
New Line.SMT_33276 phases=3 bus1=768591.1.2.3 bus2= 768601.1.2.3 linecode=3_3 length=0.03224 units=km
New Line.SMT_33277 phases=3 bus1=768601.1.2.3 bus2= 768611.1.2.3 linecode=3_3 length=0.03266 units=km
New Line.SMT_33278 phases=3 bus1=768611.1.2.3 bus2= 768621.1.2.3 linecode=3_3 length=0.02842 units=km
New Line.SMT_33279 phases=3 bus1=768621.1.2.3 bus2= 768631.1.2.3 linecode=3_3 length=0.02864 units=km
New Line.SMT_33280 phases=3 bus1=768631.1.2.3 bus2= 768641.1.2.3 linecode=3_3 length=0.02806 units=km
New Line.SMT_33281 phases=3 bus1=17CF1702.1.2.3 bus2= 768591.1.2.3 linecode=10_3 length=0.04336 units=km
New Line.SMT_33302 phases=3 bus1=651451.1.2.3 bus2= 769741.1.2.3 linecode=10_3 length=0.08314 units=km
New Line.SMT_34096 phases=3 bus1=329181.1.2.3 bus2= 219551.1.2.3 linecode=36_3 length=0.04272 units=km
New Line.SMT_34523 phases=3 bus1=663911.1.2.3 bus2= 779111.1.2.3 linecode=36_3 length=0.00065 units=km
New Line.SMT_34597 phases=3 bus1=17CF998.1.2.3 bus2= 320471.1.2.3 linecode=10_3 length=0.02851 units=km
New Line.SMT_34599 phases=3 bus1=288401.1.2.3 bus2= 780471.1.2.3 linecode=36_3 length=0.00076 units=km
New Line.SMT_34649 phases=3 bus1=1_SE001_17.1.2.3 bus2= 789551.1.2.3 linecode=142_3 length=0.00652 units=km
New Line.SMT_34650 phases=3 bus1=779891.1.2.3 bus2= 779901.1.2.3 linecode=142_3 length=0.03152 units=km
New Line.SMT_34651 phases=3 bus1=779901.1.2.3 bus2= 779911.1.2.3 linecode=142_3 length=0.02076 units=km
New Line.SMT_34652 phases=3 bus1=779911.1.2.3 bus2= 779921.1.2.3 linecode=142_3 length=0.01515 units=km
New Line.SMT_34653 phases=3 bus1=779921.1.2.3 bus2= 779931.1.2.3 linecode=142_3 length=0.01082 units=km
New Line.SMT_34654 phases=3 bus1=779931.1.2.3 bus2= 779941.1.2.3 linecode=142_3 length=0.02173 units=km
New Line.SMT_34655 phases=3 bus1=17CS1753.1.2.3 bus2= 780511.1.2.3 linecode=142_3 length=0.00579 units=km
New Line.SMT_34659 phases=3 bus1=779951.1.2.3 bus2= 779991.1.2.3 linecode=142_3 length=0.04542 units=km
New Line.SMT_34661 phases=3 bus1=779991.1.2.3 bus2= 780011.1.2.3 linecode=142_3 length=0.04287 units=km
New Line.SMT_34663 phases=3 bus1=780011.1.2.3 bus2= 780031.1.2.3 linecode=142_3 length=0.03348 units=km
New Line.SMT_34665 phases=3 bus1=780031.1.2.3 bus2= 780051.1.2.3 linecode=142_3 length=0.0308 units=km
New Line.SMT_34667 phases=3 bus1=780051.1.2.3 bus2= 780071.1.2.3 linecode=142_3 length=0.03867 units=km
New Line.SMT_34669 phases=3 bus1=780071.1.2.3 bus2= 780091.1.2.3 linecode=142_3 length=0.04235 units=km
New Line.SMT_34671 phases=3 bus1=780091.1.2.3 bus2= 780111.1.2.3 linecode=142_3 length=0.04918 units=km
New Line.SMT_34673 phases=3 bus1=780111.1.2.3 bus2= 780131.1.2.3 linecode=142_3 length=0.0468 units=km
New Line.SMT_34675 phases=3 bus1=780131.1.2.3 bus2= 780151.1.2.3 linecode=142_3 length=0.04932 units=km
New Line.SMT_34677 phases=3 bus1=780151.1.2.3 bus2= 780171.1.2.3 linecode=142_3 length=0.04797 units=km
New Line.SMT_34681 phases=3 bus1=780191.1.2.3 bus2= 780211.1.2.3 linecode=142_3 length=0.05007 units=km
New Line.SMT_34682 phases=3 bus1=780211.1.2.3 bus2= 780222.1.2.3 linecode=142_3 length=0.03718 units=km
New Line.SMT_34684 phases=3 bus1=780091.1.2.3 bus2= 780241.1.2.3 linecode=10_3 length=0.00091 units=km
New Line.SMT_34737 phases=3 bus1=780511.1.2.3 bus2= 779951.1.2.3 linecode=142_3 length=0.04419 units=km
New Line.SMT_34738 phases=3 bus1=780222.1.2.3 bus2= 288401.1.2.3 linecode=36_3 length=0.00156 units=km
New Line.SMT_35345 phases=3 bus1=785051.1.2.3 bus2= 345061.1.2.3 linecode=10_3 length=0.01707 units=km
New Line.SMT_35346 phases=3 bus1=785051.1.2.3 bus2= 479792.1.2.3 linecode=3_3 length=0.0456 units=km
New Line.SMT_35347 phases=3 bus1=479792.1.2.3 bus2= 479801.1.2.3 linecode=3_3 length=0.03825 units=km
New Line.SMT_35351 phases=3 bus1=479801.1.2.3 bus2= 718131.1.2.3 linecode=3_3 length=0.04408 units=km
New Line.SMT_35352 phases=3 bus1=718131.1.2.3 bus2= 718141.1.2.3 linecode=3_3 length=0.041 units=km
New Line.SMT_35353 phases=3 bus1=718141.1.2.3 bus2= 718161.1.2.3 linecode=3_3 length=0.03836 units=km
New Line.SMT_35354 phases=3 bus1=345061.1.2.3 bus2= 768581.1.2.3 linecode=10_3 length=0.05153 units=km
New Line.SMT_35366 phases=3 bus1=785051.1.2.3 bus2= 784571.1.2.3 linecode=3_3 length=0.01155 units=km
New Line.SMT_35367 phases=3 bus1=784571.1.2.3 bus2= 784581.1.2.3 linecode=3_3 length=0.04028 units=km
New Line.SMT_35368 phases=3 bus1=784581.1.2.3 bus2= 784591.1.2.3 linecode=3_3 length=0.04188 units=km
New Line.SMT_35369 phases=3 bus1=784591.1.2.3 bus2= 784601.1.2.3 linecode=3_3 length=0.03871 units=km
New Line.SMT_35370 phases=3 bus1=784601.1.2.3 bus2= 784611.1.2.3 linecode=3_3 length=0.04397 units=km
New Line.SMT_35371 phases=3 bus1=784611.1.2.3 bus2= 784621.1.2.3 linecode=3_3 length=0.04199 units=km
New Line.SMT_35372 phases=3 bus1=784661.1.2.3 bus2= 784631.1.2.3 linecode=3_3 length=0.03329 units=km
New Line.SMT_35373 phases=3 bus1=784631.1.2.3 bus2= 784641.1.2.3 linecode=3_3 length=0.03857 units=km
New Line.SMT_35374 phases=3 bus1=784641.1.2.3 bus2= 784651.1.2.3 linecode=3_3 length=0.04792 units=km
New Line.SMT_35375 phases=3 bus1=784621.1.2.3 bus2= 784661.1.2.3 linecode=3_3 length=0.05277 units=km
New Line.SMT_35376 phases=3 bus1=784661.1.2.3 bus2= 784671.1.2.3 linecode=3_3 length=0.0421 units=km
New Line.SMT_35377 phases=3 bus1=784671.1.2.3 bus2= 784681.1.2.3 linecode=3_3 length=0.03957 units=km
New Line.SMT_35378 phases=3 bus1=785061.1.2.3 bus2= 784691.1.2.3 linecode=3_3 length=0.02706 units=km
New Line.SMT_35414 phases=3 bus1=279201.1.2.3 bus2= 785051.1.2.3 linecode=10_3 length=0.01623 units=km
New Line.SMT_35415 phases=3 bus1=784681.1.2.3 bus2= 785061.1.2.3 linecode=3_3 length=0.02685 units=km
New Line.SMT_35770 phases=3 bus1=215451.1.2.3 bus2= 788021.1.2.3 linecode=36_3 length=0.04002 units=km
New Line.SMT_35773 phases=3 bus1=243281.1.2.3 bus2= 788001.1.2.3 linecode=36_3 length=0.04771 units=km
New Line.SMT_35775 phases=3 bus1=298591.1.2.3 bus2= 787661.1.2.3 linecode=36_3 length=0.05459 units=km
New Line.SMT_35776 phases=3 bus1=298601.1.2.3 bus2= 298591.1.2.3 linecode=36_3 length=0.04528 units=km
New Line.SMT_35778 phases=3 bus1=701912.1.2.3 bus2= 606522.1.2.3 linecode=3_3 length=0.02662 units=km
New Line.SMT_35779 phases=3 bus1=606522.1.2.3 bus2= 606531.1.2.3 linecode=3_3 length=0.05065 units=km
New Line.SMT_35781 phases=3 bus1=618331.1.2.3 bus2= 787971.1.2.3 linecode=36_3 length=0.05326 units=km
New Line.SMT_35782 phases=3 bus1=787911.1.2.3 bus2= 633152.1.2.3 linecode=10_3 length=0.04204 units=km
New Line.SMT_35783 phases=3 bus1=633152.1.2.3 bus2= 633171.1.2.3 linecode=10_3 length=0.03489 units=km
New Line.SMT_35784 phases=3 bus1=787851.1.2.3 bus2= 701912.1.2.3 linecode=3_3 length=0.0262 units=km
New Line.SMT_35791 phases=3 bus1=787661.1.2.3 bus2= 243281.1.2.3 linecode=36_3 length=0.06262 units=km
New Line.SMT_35809 phases=3 bus1=787861.1.2.3 bus2= 787851.1.2.3 linecode=3_3 length=0.02726 units=km
New Line.SMT_35810 phases=3 bus1=787871.1.2.3 bus2= 787861.1.2.3 linecode=3_3 length=0.03338 units=km
New Line.SMT_35813 phases=3 bus1=787941.1.2.3 bus2= 787891.1.2.3 linecode=142_3 length=0.02829 units=km
New Line.SMT_35814 phases=3 bus1=787901.1.2.3 bus2= 215451.1.2.3 linecode=36_3 length=0.03619 units=km
New Line.SMT_35815 phases=3 bus1=787941.1.2.3 bus2= 787911.1.2.3 linecode=142_3 length=0.00839 units=km
New Line.SMT_35818 phases=3 bus1=787941.1.2.3 bus2= 787901.1.2.3 linecode=142_3 length=0.01315 units=km
New Line.SMT_35819 phases=3 bus1=787961.1.2.3 bus2= 787941.1.2.3 linecode=142_3 length=0.02312 units=km
New Line.SMT_35820 phases=3 bus1=17CS37.1.2.3 bus2= 216722.1.2.3 linecode=36_3 length=0.04364 units=km
New Line.SMT_35822 phases=3 bus1=788001.1.2.3 bus2= 618331.1.2.3 linecode=36_3 length=0.04795 units=km
New Line.SMT_35824 phases=3 bus1=788021.1.2.3 bus2= 298601.1.2.3 linecode=36_3 length=0.04681 units=km
New Line.SMT_35825 phases=3 bus1=218841.1.2.3 bus2= 787961.1.2.3 linecode=36_3 length=0.02077 units=km
New Line.SMT_36044 phases=3 bus1=789551.1.2.3 bus2= 779891.1.2.3 linecode=142_3 length=0.0246 units=km
New Line.SMT_3609 phases=3 bus1=133241.1.2.3 bus2= 663911.1.2.3 linecode=36_3 length=0.05483 units=km
New Line.SMT_36114 phases=3 bus1=17CF1269.1.2.3 bus2= 239461.1.2.3 linecode=10_3 length=0.09364 units=km
New Line.SMT_36115 phases=3 bus1=297731.1.2.3 bus2= 298471.1.2.3 linecode=10_3 length=0.04305 units=km
New Line.SMT_36116 phases=3 bus1=17CF847.1.2.3 bus2= 297701.1.2.3 linecode=10_3 length=0.02895 units=km
New Line.SMT_36283 phases=3 bus1=791101.1.2.3 bus2= 287642.1.2.3 linecode=3_3 length=0.04687 units=km
New Line.SMT_36284 phases=3 bus1=766031.1.2.3 bus2= 800371.1.2.3 linecode=3_3 length=0.00593 units=km
New Line.SMT_36285 phases=3 bus1=791061.1.2.3 bus2= 791071.1.2.3 linecode=3_3 length=0.04388 units=km
New Line.SMT_36286 phases=3 bus1=791071.1.2.3 bus2= 791081.1.2.3 linecode=3_3 length=0.03672 units=km
New Line.SMT_36287 phases=3 bus1=791081.1.2.3 bus2= 791091.1.2.3 linecode=3_3 length=0.03903 units=km
New Line.SMT_36288 phases=3 bus1=791091.1.2.3 bus2= 791101.1.2.3 linecode=3_3 length=0.04316 units=km
New Line.SMT_36325 phases=3 bus1=218901.1.2.3 bus2= 218911.1.2.3 linecode=13_3 length=0.0441 units=km
New Line.SMT_36493 phases=1 bus1=781841.1 bus2= 268301.1 linecode=1_1 length=0.08213 units=km
New Line.SMT_36494 phases=1 bus1=268301.1 bus2= 268311.1 linecode=1_1 length=0.07102 units=km
New Line.SMT_36495 phases=1 bus1=268281.1 bus2= 781841.1 linecode=1_1 length=0.01758 units=km
New Line.SMT_36496 phases=1 bus1=268311.1 bus2= 792141.1 linecode=1_1 length=0.09733 units=km
New Line.SMT_37536 phases=3 bus1=798491.1.2.3 bus2= 780191.1.2.3 linecode=142_3 length=0.02416 units=km
New Line.SMT_37537 phases=3 bus1=780171.1.2.3 bus2= 798491.1.2.3 linecode=142_3 length=0.02098 units=km
New Line.SMT_37699 phases=3 bus1=287642.1.2.3 bus2= 753131.1.2.3 linecode=10_3 length=0.065 units=km
New Line.SMT_37828 phases=3 bus1=800371.1.2.3 bus2= 791061.1.2.3 linecode=3_3 length=0.03688 units=km
New Line.SMT_38195 phases=3 bus1=766121.1.2.3 bus2= 802301.1.2.3 linecode=3_3 length=0.04744 units=km
New Line.SMT_38196 phases=3 bus1=802301.1.2.3 bus2= 802311.1.2.3 linecode=3_3 length=0.04839 units=km
New Line.SMT_39274 phases=3 bus1=810741.1.2.3 bus2= 273061.1.2.3 linecode=36_3 length=0.04124 units=km
New Line.SMT_39275 phases=3 bus1=255521.1.2.3 bus2= 810741.1.2.3 linecode=36_3 length=0.07904 units=km
New Line.SMT_39276 phases=3 bus1=810771.1.2.3 bus2= 787871.1.2.3 linecode=3_3 length=0.0325 units=km
New Line.SMT_39277 phases=3 bus1=787891.1.2.3 bus2= 810771.1.2.3 linecode=3_3 length=0.01683 units=km
New Line.SMT_39333 phases=3 bus1=746891.1.2.3 bus2= 811111.1.2.3 linecode=10_3 length=0.0732 units=km
New Line.SMT_39334 phases=3 bus1=811111.1.2.3 bus2= 811121.1.2.3 linecode=10_3 length=0.08398 units=km
New Line.SMT_39335 phases=3 bus1=811121.1.2.3 bus2= 811131.1.2.3 linecode=10_3 length=0.05615 units=km
New Line.SMT_39376 phases=1 bus1=250841.2 bus2= 811471.2 linecode=1_1 length=0.11399 units=km
New Line.SMT_39543 phases=3 bus1=476021.1.2.3 bus2= 239511.1.2.3 linecode=10_3 length=0.09105 units=km
New Line.SMT_39676 phases=3 bus1=814291.1.2.3 bus2= 268152.1.2.3 linecode=10_3 length=0.09984 units=km
New Line.SMT_39677 phases=3 bus1=814281.1.2.3 bus2= 272141.1.2.3 linecode=10_3 length=0.04162 units=km
New Line.SMT_39678 phases=3 bus1=268152.1.2.3 bus2= 700371.1.2.3 linecode=10_3 length=0.00276 units=km
New Line.SMT_39679 phases=3 bus1=272131.1.2.3 bus2= 814281.1.2.3 linecode=10_3 length=0.03471 units=km
New Line.SMT_39680 phases=3 bus1=272141.1.2.3 bus2= 814291.1.2.3 linecode=10_3 length=0.07625 units=km
New Line.SMT_39749 phases=1 bus1=250941.2 bus2= 250951.2 linecode=1_1 length=0.12134 units=km
New Line.SMT_39750 phases=1 bus1=250951.2 bus2= 250961.2 linecode=1_1 length=0.12517 units=km
New Line.SMT_39751 phases=1 bus1=250961.2 bus2= 814871.2 linecode=1_1 length=0.09147 units=km
New Line.SMT_39762 phases=3 bus1=814941.1.2.3 bus2= 272991.1.2.3 linecode=36_3 length=0.04126 units=km
New Line.SMT_39763 phases=3 bus1=273011.1.2.3 bus2= 814941.1.2.3 linecode=36_3 length=0.03353 units=km
New Line.SMT_9163 phases=3 bus1=218881.1.2.3 bus2= 361881.1.2.3 linecode=36_3 length=0.00959 units=km
New Line.SMT_9180 phases=3 bus1=278541.1.2.3 bus2= 278551.1.2.3 linecode=10_3 length=0.03966 units=km
New Line.SMT_9229 phases=3 bus1=201751.1.2.3 bus2= 298561.1.2.3 linecode=10_3 length=0.08766 units=km
New Line.SMT_9250 phases=3 bus1=288391.1.2.3 bus2= 288381.1.2.3 linecode=36_3 length=0.05652 units=km
New Line.SMT_9299 phases=3 bus1=360001.1.2.3 bus2= 219521.1.2.3 linecode=10_3 length=0.00391 units=km
New Line.SMT_9355 phases=3 bus1=351411.1.2.3 bus2= 297651.1.2.3 linecode=10_3 length=0.01261 units=km
New Line.SMT_9403 phases=3 bus1=309471.1.2.3 bus2= 218901.1.2.3 linecode=13_3 length=0.02371 units=km
New Line.SMT_9440 phases=3 bus1=219501.1.2.3 bus2= 219511.1.2.3 linecode=36_3 length=0.04162 units=km
New Line.SMT_9444 phases=3 bus1=360001.1.2.3 bus2= 219501.1.2.3 linecode=36_3 length=0.01681 units=km
New Line.SMT_9461 phases=3 bus1=363331.1.2.3 bus2= 269221.1.2.3 linecode=10_3 length=0.02721 units=km
New Line.SMT_9491 phases=3 bus1=361881.1.2.3 bus2= 309471.1.2.3 linecode=13_3 length=0.0214 units=km
New Line.SMT_9580 phases=3 bus1=298491.1.2.3 bus2= 298551.1.2.3 linecode=10_3 length=0.0578 units=km
New Line.SMT_9622 phases=3 bus1=297651.1.2.3 bus2= 297641.1.2.3 linecode=10_3 length=0.04713 units=km
New Line.SMT_9628 phases=3 bus1=272071.1.2.3 bus2= 272111.1.2.3 linecode=10_3 length=0.09178 units=km
New Line.SMT_9635 phases=3 bus1=363341.1.2.3 bus2= 269251.1.2.3 linecode=10_3 length=0.00606 units=km
New Line.SMT_9638 phases=3 bus1=17CF645.1.2.3 bus2= 268161.1.2.3 linecode=10_3 length=0.10332 units=km
New Line.SMT_9645 phases=3 bus1=297511.1.2.3 bus2= 297521.1.2.3 linecode=10_3 length=0.04272 units=km
New Line.SMT_9672 phases=3 bus1=272961.1.2.3 bus2= 272951.1.2.3 linecode=36_3 length=0.02915 units=km
New Line.SMT_9703 phases=3 bus1=329331.1.2.3 bus2= 368531.1.2.3 linecode=10_3 length=0.00224 units=km
New Line.SMT_9706 phases=3 bus1=278631.1.2.3 bus2= 278621.1.2.3 linecode=10_3 length=0.01773 units=km
New Line.SMT_9707 phases=3 bus1=298571.1.2.3 bus2= 239451.1.2.3 linecode=10_3 length=0.09654 units=km
New Line.SMT_9711 phases=3 bus1=780222.1.2.3 bus2= 288391.1.2.3 linecode=36_3 length=0.04927 units=km
New Line.SMT_9726 phases=3 bus1=267351.1.2.3 bus2= 279351.1.2.3 linecode=10_3 length=0.06997 units=km
New Line.SMT_9731 phases=3 bus1=17CS1279.1.2.3 bus2= 272071.1.2.3 linecode=10_3 length=0.09444 units=km
New Line.SMT_9738 phases=3 bus1=269221.1.2.3 bus2= 269231.1.2.3 linecode=10_3 length=0.04253 units=km
New Line.SMT_9747 phases=1 bus1=250901.2 bus2= 388941.2 linecode=29_1 length=0.0593 units=km
New Line.SMT_9764 phases=3 bus1=297521.1.2.3 bus2= 297531.1.2.3 linecode=10_3 length=0.03467 units=km
New Line.SMT_9770 phases=3 bus1=278551.1.2.3 bus2= 278561.1.2.3 linecode=10_3 length=0.03606 units=km
New Line.SMT_9777 phases=3 bus1=360421.1.2.3 bus2= 273041.1.2.3 linecode=36_3 length=0.04561 units=km
New Line.SMT_9779 phases=3 bus1=295991.1.2.3 bus2= 296001.1.2.3 linecode=10_3 length=0.07716 units=km
New Line.SMT_9782 phases=3 bus1=279351.1.2.3 bus2= 279341.1.2.3 linecode=10_3 length=0.05021 units=km
New Line.SMT_9783 phases=3 bus1=272911.1.2.3 bus2= 272921.1.2.3 linecode=10_3 length=0.02856 units=km
New Line.SMT_9786 phases=3 bus1=272971.1.2.3 bus2= 372351.1.2.3 linecode=36_3 length=0.04031 units=km
New Line.SMT_9791 phases=3 bus1=307101.1.2.3 bus2= 307111.1.2.3 linecode=10_3 length=0.12561 units=km
New Line.SMT_9799 phases=3 bus1=239511.1.2.3 bus2= 239521.1.2.3 linecode=10_3 length=0.09972 units=km
New Line.SMT_9804 phases=3 bus1=268171.1.2.3 bus2= 268181.1.2.3 linecode=10_3 length=0.09905 units=km
New Line.SMT_9810 phases=3 bus1=297631.1.2.3 bus2= 297511.1.2.3 linecode=10_3 length=0.04031 units=km
New Line.SMT_9815 phases=3 bus1=298471.1.2.3 bus2= 298491.1.2.3 linecode=10_3 length=0.05284 units=km
New Line.SMT_9819 phases=3 bus1=272901.1.2.3 bus2= 272911.1.2.3 linecode=10_3 length=0.04847 units=km
New Line.SMT_9830 phases=3 bus1=239501.1.2.3 bus2= 476021.1.2.3 linecode=10_3 length=0.08157 units=km
New Line.SMT_9841 phases=1 bus1=250901.2 bus2= 250921.2 linecode=1_1 length=0.0908 units=km
New Line.SMT_9845 phases=3 bus1=279341.1.2.3 bus2= 344571.1.2.3 linecode=10_3 length=0.00966 units=km
New Line.SMT_9852 phases=3 bus1=351411.1.2.3 bus2= 297631.1.2.3 linecode=10_3 length=0.03407 units=km
New Line.SMT_9853 phases=3 bus1=273041.1.2.3 bus2= 273011.1.2.3 linecode=36_3 length=0.04071 units=km
New Line.SMT_9861 phases=3 bus1=278641.1.2.3 bus2= 278631.1.2.3 linecode=10_3 length=0.01883 units=km
New Line.SMT_9862 phases=3 bus1=268161.1.2.3 bus2= 268171.1.2.3 linecode=10_3 length=0.10112 units=km
New Line.SMT_9877 phases=3 bus1=272951.1.2.3 bus2= 329181.1.2.3 linecode=36_3 length=0.03138 units=km
New Line.SMT_9886 phases=3 bus1=201751.1.2.3 bus2= 295461.1.2.3 linecode=10_3 length=0.11498 units=km
New Line.SMT_9900 phases=3 bus1=17CF951.1.2.3 bus2= 307101.1.2.3 linecode=10_3 length=0.16452 units=km
New Line.SMT_9920 phases=3 bus1=279191.1.2.3 bus2= 279201.1.2.3 linecode=10_3 length=0.03256 units=km
New Line.SMT_9926 phases=1 bus1=250841.2 bus2= 250851.2 linecode=1_1 length=0.11827 units=km
New Line.SMT_9942 phases=3 bus1=298551.1.2.3 bus2= 201751.1.2.3 linecode=10_3 length=0.07187 units=km
New Line.SMT_9953 phases=1 bus1=250921.2 bus2= 250931.2 linecode=1_1 length=0.10161 units=km
New Line.SMT_9963 phases=3 bus1=278621.1.2.3 bus2= 418631.1.2.3 linecode=10_3 length=0.0075 units=km
New Line.SMT_9984 phases=1 bus1=250811.2 bus2= 250821.2 linecode=1_1 length=0.11652 units=km
